
 OpenBabel07172407343D

  5  1  0  0  0  0  0  0  0  0999 V2000
    0.0964    2.5077    5.1628 Cl  0  0  0  0  0  0  0  0  0  0  0  0
    0.0343    3.8411    4.6452 O   0  0  0  0  0 15  0  0  0  0  0  0
   -0.5686    1.6246    4.1938 O   0  0  0  0  0 15  0  0  0  0  0  0
   -0.5151    2.4369    6.3779 O   0  0  0  0  0  1  0  0  0  0  0  0
    1.4815    2.1391    5.2881 O   0  0  0  0  0 15  0  0  0  0  0  0
  1  4  1  0  0  0  0
M  END
